*ALD1107 SPICE Parameter File.MODEL ALD1107 PMOS (LEVEL=1 CBD=0.5p CBS=0.5p CGDO=0.1p CGSO=0.1p GAMMA=.45 + KP=100u L=10E-6 LAMBDA=0.0304 PHI=.8 VTO=-0.82 W=20E-6)


m1 1 2 3 3  ALD1107
vgs 0 2 5v
vds 0 1 5v
vbs 3 0 5v
.dc VDS 0 5 0.01 VGS 2.5 4 0.5
.control
run

plot -1*i(vds)
.endc
.end