
**ALD1107 SPICE Parameter File
.MODEL ALD1107 PMOS (LEVEL=1 CBD=0.5p CBS=0.5p CGDO=0.1p CGSO=0.1p GAMMA=.45
+ KP=100u L=10E-6 LAMBDA=0.0304 PHI=.8 VTO=-0.82 W=20E-6)

m1 1 2 3 4 ALD1107
vgs 2 3 5v
vds 1 3 -0.2v
vsb 3 4 0v
vs  3 0 0v


.control
dc vgs -3 0 0.01 vsb -4 0 1

run

plot i(vds)
.endc
.end